/*---------------------------------------------------------------------------*\
| =========                 |                                                 |
| \\      /  F ield         | OpenFOAM: The Open Source CFD Toolbox           |
|  \\    /   O peration     | Version:  v1912                                 |
|   \\  /    A nd           | Website:  www.openfoam.com                      |
|    \\/     M anipulation  |                                                 |
\*---------------------------------------------------------------------------*/
Build  : _f3950763fe-20191219 OPENFOAM=1912
Arch   : "LSB;label=32;scalar=64"
Exec   : blockMesh
Date   : Jul 11 2021
Time   : 20:40:59
Host   : LAPTOP-RTGI42HG
PID    : 29469
I/O    : uncollated
Case   : /mnt/c/Users/andy9/Desktop/CFAL/projects/programming/test/compressibleFields/testCase
nProcs : 1
trapFpe: Floating point exception trapping enabled (FOAM_SIGFPE).
fileModificationChecking : Monitoring run-time modified files using timeStampMaster (fileModificationSkew 10)
allowSystemOperations : Allowing user-supplied system call operations

// * * * * * * * * * * * * * * * * * * * * * * * * * * * * * * * * * * * * * //
Create time

Creating block mesh from "system/blockMeshDict"
Creating block edges
No non-planar block faces defined
Creating topology blocks
Creating topology patches

Creating block mesh topology
--> FOAM Warning : 
    From function Foam::polyMesh::polyMesh(const Foam::IOobject&, Foam::pointField&&, const cellShapeList&, const faceListList&, const wordList&, const Foam::PtrList<Foam::dictionary>&, const Foam::word&, const Foam::word&, bool)
    in file meshes/polyMesh/polyMeshFromShapeMesh.C at line 867
    Found 4 undefined faces in mesh; adding to default patch defaultFaces

Check topology

	Basic statistics
		Number of internal faces : 1
		Number of boundary faces : 10
		Number of defined boundary faces : 10
		Number of undefined boundary faces : 0
	Checking patch -> block consistency

Creating block offsets
Creating merge list...
Deleting polyMesh directory "constant/polyMesh"

Creating polyMesh from blockMesh
Creating patches
Creating cells
Creating points with scale 1
    Block 0 cell size :
        i : 0.0038105 .. 0.0038105
        j : 0.00381 .. 0.00381
        k : 0.01 .. 0.01

    Block 1 cell size :
        i : 0.0039444 .. 0.0039444
        j : 0.00381 .. 0.00381
        k : 0.01 .. 0.01


There are no merge patch pairs

Writing polyMesh with 0 cellZones
----------------
Mesh Information
----------------
  boundingBox: (-0.15242 0 -0.005) (0.3048 0.1524 0.005)
  nPoints: 9922
  nCells: 4800
  nFaces: 19360
  nInternalFaces: 9440
----------------
Patches
----------------
  patch 0 (start: 9440 size: 40) name: inlet
  patch 1 (start: 9480 size: 40) name: outlet
  patch 2 (start: 9520 size: 40) name: bottom
  patch 3 (start: 9560 size: 120) name: top
  patch 4 (start: 9680 size: 80) name: obstacle
  patch 5 (start: 9760 size: 9600) name: defaultFaces

End

